10173277
  -OEChem-07252514213D

 57 60  0     0  0  0  0  0  0999 V2000
   -0.4067   -5.6737   -0.3374 O   0  0  0  0  0  0  0  0  0  0  0  0
    3.1224    0.4853    0.9836 O   0  0  0  0  0  0  0  0  0  0  0  0
    0.0171   -2.9147   -0.0099 N   0  0  0  0  0  0  0  0  0  0  0  0
    1.6163   -1.2040    0.4955 N   0  0  0  0  0  0  0  0  0  0  0  0
    0.8985    1.0831    0.7442 N   0  0  0  0  0  0  0  0  0  0  0  0
   -1.4026    1.6373    0.4859 N   0  0  0  0  0  0  0  0  0  0  0  0
   -2.6662    1.2634    0.2386 N   0  0  0  0  0  0  0  0  0  0  0  0
    5.5556    2.3326    0.4994 N   0  0  0  0  0  0  0  0  0  0  0  0
    1.0407   -3.7527   -0.6494 C   0  0  0  0  0  0  0  0  0  0  0  0
   -0.9168   -3.6299    0.8667 C   0  0  0  0  0  0  0  0  0  0  0  0
    0.3819   -4.9668   -1.2945 C   0  0  0  0  0  0  0  0  0  0  0  0
   -1.4704   -4.8519    0.1420 C   0  0  0  0  0  0  0  0  0  0  0  0
    0.3253   -1.5744    0.2447 C   0  0  0  0  0  0  0  0  0  0  0  0
   -0.7081   -0.6357    0.2358 C   0  0  0  0  0  0  0  0  0  0  0  0
   -0.3627    0.6756    0.4921 C   0  0  0  0  0  0  0  0  0  0  0  0
    1.8248    0.1056    0.7306 C   0  0  0  0  0  0  0  0  0  0  0  0
    4.0997   -0.5452    0.9696 C   0  0  0  0  0  0  0  0  0  0  0  0
    5.4722    0.0417    1.2801 C   0  0  0  0  0  0  0  0  0  0  0  0
    5.9072    1.0586    0.2529 C   0  0  0  0  0  0  0  0  0  0  0  0
    6.6191    0.6276   -0.8448 C   0  0  0  0  0  0  0  0  0  0  0  0
   -4.9444    2.0512    0.0198 C   0  0  0  0  0  0  0  0  0  0  0  0
   -3.5050    2.2473    0.2661 C   0  0  0  0  0  0  0  0  0  0  0  0
   -6.7831    0.5934   -0.4813 C   0  0  0  0  0  0  0  0  0  0  0  0
   -5.4202    0.7781   -0.2489 C   0  0  0  0  0  0  0  0  0  0  0  0
   -5.7939    3.1447    0.0624 C   0  0  0  0  0  0  0  0  0  0  0  0
    7.0049    1.5891   -1.7721 C   0  0  0  0  0  0  0  0  0  0  0  0
   -7.6514    1.6843   -0.4420 C   0  0  0  0  0  0  0  0  0  0  0  0
   -7.1569    2.9599   -0.1701 C   0  0  0  0  0  0  0  0  0  0  0  0
    5.9479    3.2389   -0.4238 C   0  0  0  0  0  0  0  0  0  0  0  0
    6.6668    2.9220   -1.5650 C   0  0  0  0  0  0  0  0  0  0  0  0
   -7.3121   -0.7708   -0.7709 C   0  0  0  0  0  0  0  0  0  0  0  0
    1.7591   -4.0790    0.1126 H   0  0  0  0  0  0  0  0  0  0  0  0
    1.5846   -3.1927   -1.4195 H   0  0  0  0  0  0  0  0  0  0  0  0
   -1.7527   -2.9966    1.1827 H   0  0  0  0  0  0  0  0  0  0  0  0
   -0.3760   -3.9453    1.7675 H   0  0  0  0  0  0  0  0  0  0  0  0
    1.1484   -5.6515   -1.6711 H   0  0  0  0  0  0  0  0  0  0  0  0
   -0.2493   -4.6755   -2.1428 H   0  0  0  0  0  0  0  0  0  0  0  0
   -2.1134   -4.5608   -0.6975 H   0  0  0  0  0  0  0  0  0  0  0  0
   -2.0747   -5.4515    0.8301 H   0  0  0  0  0  0  0  0  0  0  0  0
   -1.7232   -0.9503    0.0201 H   0  0  0  0  0  0  0  0  0  0  0  0
    4.1203   -1.0310   -0.0146 H   0  0  0  0  0  0  0  0  0  0  0  0
    3.8624   -1.2943    1.7354 H   0  0  0  0  0  0  0  0  0  0  0  0
    5.4423    0.5375    2.2588 H   0  0  0  0  0  0  0  0  0  0  0  0
    6.2170   -0.7595    1.3556 H   0  0  0  0  0  0  0  0  0  0  0  0
   -1.1482    2.6000    0.6741 H   0  0  0  0  0  0  0  0  0  0  0  0
    6.8748   -0.4151   -0.9959 H   0  0  0  0  0  0  0  0  0  0  0  0
   -3.1794    3.2838    0.4762 H   0  0  0  0  0  0  0  0  0  0  0  0
   -4.7563   -0.0817   -0.2807 H   0  0  0  0  0  0  0  0  0  0  0  0
   -5.4209    4.1429    0.2733 H   0  0  0  0  0  0  0  0  0  0  0  0
    7.5673    1.3004   -2.6550 H   0  0  0  0  0  0  0  0  0  0  0  0
   -8.7157    1.5537   -0.6193 H   0  0  0  0  0  0  0  0  0  0  0  0
   -7.8331    3.8092   -0.1390 H   0  0  0  0  0  0  0  0  0  0  0  0
    5.6591    4.2640   -0.2161 H   0  0  0  0  0  0  0  0  0  0  0  0
    6.9567    3.6883   -2.2747 H   0  0  0  0  0  0  0  0  0  0  0  0
   -7.5213   -1.2989    0.1647 H   0  0  0  0  0  0  0  0  0  0  0  0
   -6.5918   -1.3556   -1.3528 H   0  0  0  0  0  0  0  0  0  0  0  0
   -8.2351   -0.7234   -1.3586 H   0  0  0  0  0  0  0  0  0  0  0  0
  1 11  1  0  0  0  0
  1 12  1  0  0  0  0
  2 16  1  0  0  0  0
  2 17  1  0  0  0  0
  3  9  1  0  0  0  0
  3 10  1  0  0  0  0
  3 13  1  0  0  0  0
  4 13  2  0  0  0  0
  4 16  1  0  0  0  0
  5 15  1  0  0  0  0
  5 16  2  0  0  0  0
  6  7  1  0  0  0  0
  6 15  1  0  0  0  0
  6 45  1  0  0  0  0
  7 22  2  0  0  0  0
  8 19  1  0  0  0  0
  8 29  2  0  0  0  0
  9 11  1  0  0  0  0
  9 32  1  0  0  0  0
  9 33  1  0  0  0  0
 10 12  1  0  0  0  0
 10 34  1  0  0  0  0
 10 35  1  0  0  0  0
 11 36  1  0  0  0  0
 11 37  1  0  0  0  0
 12 38  1  0  0  0  0
 12 39  1  0  0  0  0
 13 14  1  0  0  0  0
 14 15  2  0  0  0  0
 14 40  1  0  0  0  0
 17 18  1  0  0  0  0
 17 41  1  0  0  0  0
 17 42  1  0  0  0  0
 18 19  1  0  0  0  0
 18 43  1  0  0  0  0
 18 44  1  0  0  0  0
 19 20  2  0  0  0  0
 20 26  1  0  0  0  0
 20 46  1  0  0  0  0
 21 22  1  0  0  0  0
 21 24  1  0  0  0  0
 21 25  2  0  0  0  0
 22 47  1  0  0  0  0
 23 24  2  0  0  0  0
 23 27  1  0  0  0  0
 23 31  1  0  0  0  0
 24 48  1  0  0  0  0
 25 28  1  0  0  0  0
 25 49  1  0  0  0  0
 26 30  2  0  0  0  0
 26 50  1  0  0  0  0
 27 28  2  0  0  0  0
 27 51  1  0  0  0  0
 28 52  1  0  0  0  0
 29 30  1  0  0  0  0
 29 53  1  0  0  0  0
 30 54  1  0  0  0  0
 31 55  1  0  0  0  0
 31 56  1  0  0  0  0
 31 57  1  0  0  0  0
M  END
> <PUBCHEM_COMPOUND_CID>
10173277

> <PUBCHEM_CONFORMER_RMSD>
1

> <PUBCHEM_CONFORMER_DIVERSEORDER>
1
148
199
239
91
237
141
104
166
115
180
240
128
219
223
241
63
178
170
123
107
196
230
221
161
176
139
204
158
151
228
235
206
210
114
238
122
156
229
69
183
236
49
110
173
146
185
127
51
153
105
136
100
113
73
163
226
101
111
99
125
215
234
218
250
77
144
120
159
201
67
233
197
202
88
150
174
181
203
80
38
95
172
179
195
217
54
138
62
165
126
71
246
116
248
131
98
211
70
149
35
155
129
133
193
83
102
103
37
247
220
72
135
53
60
58
175
57
13
213
137
162
90
18
132
194
25
143
59
26
81
124
109
222
227
208
32
40
249
119
106
154
200
66
190
112
216
68
167
207
39
182
20
92
45
169
225
78
224
75
64
121
244
82
134
243
56
52
86
232
27
15
46
34
198
50
89
118
47
94
93
189
142
79
5
160
231
43
55
84
188
76
96
42
87
14
28
108
140
97
245
177
164
29
147
85
3
157
48
31
152
191
192
8
212
168
171
205
186
41
22
214
74
117
33
242
130
209
23
24
21
184
44
187
61
6
145
12
65
7
30
17
19
4
9
36
10
16
11
2

> <PUBCHEM_MMFF94_PARTIAL_CHARGES>
42
1 -0.56
10 0.37
11 0.28
12 0.28
13 0.41
14 -0.15
15 0.41
16 0.7
17 0.28
18 0.14
19 0.17
2 -0.36
20 -0.15
21 0.09
22 0.3
23 -0.14
24 -0.15
25 -0.15
26 -0.15
27 -0.15
28 -0.15
29 0.16
3 -0.84
30 -0.15
31 0.14
4 -0.62
40 0.15
45 0.4
46 0.15
47 0.06
48 0.15
49 0.15
5 -0.62
50 0.15
51 0.15
52 0.15
53 0.15
54 0.15
6 -0.46
7 -0.49
8 -0.62
9 0.37

> <PUBCHEM_EFFECTIVE_ROTOR_COUNT>
9.2

> <PUBCHEM_PHARMACOPHORE_FEATURES>
10
1 1 acceptor
1 6 donor
1 7 acceptor
1 8 acceptor
3 3 4 13 cation
3 4 5 16 cation
6 1 3 9 10 11 12 rings
6 21 23 24 25 27 28 rings
6 4 5 13 14 15 16 rings
6 8 19 20 26 29 30 rings

> <PUBCHEM_HEAVY_ATOM_COUNT>
31

> <PUBCHEM_ATOM_DEF_STEREO_COUNT>
0

> <PUBCHEM_ATOM_UDEF_STEREO_COUNT>
0

> <PUBCHEM_BOND_DEF_STEREO_COUNT>
1

> <PUBCHEM_BOND_UDEF_STEREO_COUNT>
0

> <PUBCHEM_ISOTOPIC_ATOM_COUNT>
0

> <PUBCHEM_COMPONENT_COUNT>
1

> <PUBCHEM_CACTVS_TAUTO_COUNT>
6

> <PUBCHEM_CONFORMER_ID>
009B3B5D00000001

> <PUBCHEM_MMFF94_ENERGY>
98.5205

> <PUBCHEM_FEATURE_SELFOVERLAP>
50.873

> <PUBCHEM_SHAPE_FINGERPRINT>
10906281 52 18335706005581829129
11062273 19 18052540976004334778
11135926 11 18267570335408437357
11136131 41 18263914450456792163
11719270 70 18268699537670416099
11991303 11 18335136544115400718
12539765 74 18342745074464445069
13540713 5 18115292515105975074
13911987 19 18341058457834499513
14068700 686 18263361391812591893
14190465 44 18267007522925975800
1454969 45 18407755937388161749
14790565 3 18411416189805173840
15021287 119 11170208566157558073
15131766 46 15720816808314598772
15400415 2 18268702828174702729
16993438 75 18262800787270134395
18365409 1 18339080518315668055
20505436 4 18040715879593437794
23729417 116 17404303396428656446
249057 3 18409450255469241418
3103668 31 18123469651232217287
4058900 60 18340495456230168137
4073 2 18337112251537881857
4461854 278 18339371880988095555
5265222 85 18340204197766531601
563151 40 18272928345438121991
6898599 12 18265058118705790524
9658208 31 18200861989666618088
9980921 221 18268423727835307703

> <PUBCHEM_SHAPE_MULTIPOLES>
596.34
21.69
6.58
1.14
7.53
11.93
-0.23
-29.3
-6.81
1.09
-1.76
-1.8
-0.01
-1.53

> <PUBCHEM_SHAPE_SELFOVERLAP>
1272.866

> <PUBCHEM_SHAPE_VOLUME>
326.7

> <PUBCHEM_COORDINATE_TYPE>
2
5
10

$$$$
