5284360
     RDKit          3D

 60 60  0  0  0  0  0  0  0  0999 V2000
    0.5671    0.5012   -0.0197 S   0  0  0  0  0  0  0  0  0  0  0  0
    1.6512   -0.9049   -0.8103 O   0  0  0  0  0  0  0  0  0  0  0  0
   -5.6150   -0.3472   -1.8939 O   0  0  0  0  0  0  0  0  0  0  0  0
   -4.6253   -2.0685   -0.7012 O   0  0  0  0  0  0  0  0  0  0  0  0
   -4.8492    1.3981   -0.0074 O   0  0  0  0  0  0  0  0  0  0  0  0
    2.3474    0.8583   -2.1353 O   0  0  0  0  0  0  0  0  0  0  0  0
    1.5933   -0.6310   -0.7206 O   0  0  0  0  0  0  0  0  0  0  0  0
    0.5581    1.7467   -0.8603 O   0  0  0  0  0  0  0  0  0  0  0  0
    1.0550    0.8384    1.3614 O   0  0  0  0  0  0  0  0  0  0  0  0
   -6.5009    0.8353    1.5531 N   0  0  0  0  0  0  0  0  0  0  0  0
    7.3475    0.6760    1.9623 N   0  0  0  0  0  0  0  0  0  0  0  0
    8.9231    0.7325    0.1604 N   0  0  0  0  0  0  0  0  0  0  0  0
    9.6067    1.0469    2.5080 N   0  0  0  0  0  0  0  0  0  0  0  0
   -2.2560   -1.4023   -2.3222 C   0  0  0  0  0  0  0  0  0  0  0  0
   -3.6579   -1.5956   -2.8339 C   0  0  0  0  0  0  0  0  0  0  0  0
   -1.7248   -0.1099   -2.1863 C   0  0  0  0  0  0  0  0  0  0  0  0
   -1.4885   -2.5061   -1.9188 C   0  0  0  0  0  0  0  0  0  0  0  0
    0.3503   -1.0373   -1.3185 C   0  0  0  0  0  0  0  0  0  0  0  0
   -0.4319    0.0733   -1.6870 C   0  0  0  0  0  0  0  0  0  0  0  0
   -0.1963   -2.3216   -1.4197 C   0  0  0  0  0  0  0  0  0  0  0  0
   -4.6524   -1.3546   -1.7417 C   0  0  0  0  0  0  0  0  0  0  0  0
   -6.5626   -0.0157   -0.8802 C   0  0  0  0  0  0  0  0  0  0  0  0
    3.7905    0.2789   -0.3387 C   0  0  0  0  0  0  0  0  0  0  0  0
   -5.9081    0.7553    0.2382 C   0  0  0  0  0  0  0  0  0  0  0  0
    2.5544    0.1172   -1.1354 C   0  0  0  0  0  0  0  0  0  0  0  0
    4.7549    1.2396   -0.6947 C   0  0  0  0  0  0  0  0  0  0  0  0
    4.0142   -0.5235    0.7942 C   0  0  0  0  0  0  0  0  0  0  0  0
    6.1685    0.5365    1.1546 C   0  0  0  0  0  0  0  0  0  0  0  0
    5.9287    1.3749    0.0524 C   0  0  0  0  0  0  0  0  0  0  0  0
    5.1880   -0.3852    1.5401 C   0  0  0  0  0  0  0  0  0  0  0  0
   -5.8536    1.6635    2.5770 C   0  0  0  0  0  0  0  0  0  0  0  0
   -7.7395    0.1153    1.8657 C   0  0  0  0  0  0  0  0  0  0  0  0
    8.5734    0.8355    1.5464 C   0  0  0  0  0  0  0  0  0  0  0  0
   -1.0820   -0.1597    0.0703 C   0  0  0  0  0  0  0  0  0  0  0  0
    1.5863   -1.4019   -0.0983 H   0  0  0  0  0  0  0  0  0  0  0  0
    9.8949    0.9569   -0.1493 H   0  0  0  0  0  0  0  0  0  0  0  0
    8.2754    0.3137   -0.5423 H   0  0  0  0  0  0  0  0  0  0  0  0
    9.3825    1.0758    3.5290 H   0  0  0  0  0  0  0  0  0  0  0  0
   10.5925    1.2029    2.2031 H   0  0  0  0  0  0  0  0  0  0  0  0
   -3.8482   -0.8926   -3.6744 H   0  0  0  0  0  0  0  0  0  0  0  0
   -3.7943   -2.6267   -3.2291 H   0  0  0  0  0  0  0  0  0  0  0  0
   -2.3172    0.7551   -2.4588 H   0  0  0  0  0  0  0  0  0  0  0  0
   -1.8905   -3.5092   -1.9892 H   0  0  0  0  0  0  0  0  0  0  0  0
   -0.0614    1.0808   -1.5607 H   0  0  0  0  0  0  0  0  0  0  0  0
    0.3865   -3.1824   -1.1160 H   0  0  0  0  0  0  0  0  0  0  0  0
   -7.0397   -0.9456   -0.5066 H   0  0  0  0  0  0  0  0  0  0  0  0
   -7.3531    0.6211   -1.3288 H   0  0  0  0  0  0  0  0  0  0  0  0
    4.6030    1.8886   -1.5493 H   0  0  0  0  0  0  0  0  0  0  0  0
    3.2822   -1.2580    1.1066 H   0  0  0  0  0  0  0  0  0  0  0  0
    6.6441    2.1404   -0.2231 H   0  0  0  0  0  0  0  0  0  0  0  0
    5.3425   -1.0084    2.4127 H   0  0  0  0  0  0  0  0  0  0  0  0
   -5.8151    2.7199    2.2350 H   0  0  0  0  0  0  0  0  0  0  0  0
   -4.8193    1.2983    2.7556 H   0  0  0  0  0  0  0  0  0  0  0  0
   -6.4006    1.6324    3.5425 H   0  0  0  0  0  0  0  0  0  0  0  0
   -8.5382    0.4052    1.1483 H   0  0  0  0  0  0  0  0  0  0  0  0
   -7.5616   -0.9793    1.8058 H   0  0  0  0  0  0  0  0  0  0  0  0
   -8.1012    0.3468    2.8895 H   0  0  0  0  0  0  0  0  0  0  0  0
   -1.0773   -1.0859    0.6814 H   0  0  0  0  0  0  0  0  0  0  0  0
   -1.7573    0.5866    0.5383 H   0  0  0  0  0  0  0  0  0  0  0  0
   -1.4433   -0.3945   -0.9525 H   0  0  0  0  0  0  0  0  0  0  0  0
  1  7  1  0
  1  8  2  0
  1  9  2  0
  1 34  1  0
  2 18  1  0
  2 25  1  0
  3 21  1  0
  3 22  1  0
  4 21  2  0
  5 24  2  0
  6 25  2  0
 10 24  1  0
 10 31  1  0
 10 32  1  0
 11 28  1  0
 11 33  2  3
 12 33  1  0
 13 33  1  0
 14 15  1  0
 14 16  2  0
 14 17  1  0
 15 21  1  0
 16 19  1  0
 17 20  2  0
 18 19  2  0
 18 20  1  0
 22 24  1  0
 23 25  1  0
 23 26  2  0
 23 27  1  0
 26 29  1  0
 27 30  2  0
 28 29  2  0
 28 30  1  0
  7 35  1  0
 12 36  1  0
 12 37  1  0
 13 38  1  0
 13 39  1  0
 15 40  1  0
 15 41  1  0
 16 42  1  0
 17 43  1  0
 19 44  1  0
 20 45  1  0
 22 46  1  0
 22 47  1  0
 26 48  1  0
 27 49  1  0
 29 50  1  0
 30 51  1  0
 31 52  1  0
 31 53  1  0
 31 54  1  0
 32 55  1  0
 32 56  1  0
 32 57  1  0
 34 58  1  0
 34 59  1  0
 34 60  1  0
M  END
>  <PUBCHEM_COMPOUND_CID>  (1) 
5284360

>  <PUBCHEM_COMPOUND_CANONICALIZED>  (1) 
1

>  <PUBCHEM_CACTVS_COMPLEXITY>  (1) 
695

>  <PUBCHEM_CACTVS_HBOND_ACCEPTOR>  (1) 
9

>  <PUBCHEM_CACTVS_HBOND_DONOR>  (1) 
3

>  <PUBCHEM_CACTVS_ROTATABLE_BOND>  (1) 
9

>  <PUBCHEM_CACTVS_SUBSKEYS>  (1) 
AAADceB7vABAAAAAAAAAAAAAAAAAAAAAAAAwYAAAAAAAAAABQAAAHgQQCAAADAyhmAazzoNABIKoAiXSfHKCCAEkIgAIiAFObMgOJjKEtZ+DOyDkwhEY6YeY2aGeKAAAAAAAAABQAAAAAAAAAAAAAAAAAA==

>  <PUBCHEM_IUPAC_OPENEYE_NAME>  (1) 
[4-[2-[2-(dimethylamino)-2-oxo-ethoxy]-2-oxo-ethyl]phenyl] 4-guanidinobenzoate;methanesulfonic acid

>  <PUBCHEM_IUPAC_CAS_NAME>  (1) 
4-(diaminomethylideneamino)benzoic acid [4-[2-[2-(dimethylamino)-2-oxoethoxy]-2-oxoethyl]phenyl] ester;methanesulfonic acid

>  <PUBCHEM_IUPAC_NAME_MARKUP>  (1) 
[4-[2-[2-(dimethylamino)-2-oxoethoxy]-2-oxoethyl]phenyl] 4-(diaminomethylideneamino)benzoate;methanesulfonic acid

>  <PUBCHEM_IUPAC_NAME>  (1) 
[4-[2-[2-(dimethylamino)-2-oxoethoxy]-2-oxoethyl]phenyl] 4-(diaminomethylideneamino)benzoate;methanesulfonic acid

>  <PUBCHEM_IUPAC_SYSTEMATIC_NAME>  (1) 
[4-[2-[2-(dimethylamino)-2-oxidanylidene-ethoxy]-2-oxidanylidene-ethyl]phenyl] 4-[bis(azanyl)methylideneamino]benzoate;methanesulfonic acid

>  <PUBCHEM_IUPAC_TRADITIONAL_NAME>  (1) 
4-guanidinobenzoic acid [4-[2-[2-(dimethylamino)-2-keto-ethoxy]-2-keto-ethyl]phenyl] ester;mesylic acid

>  <PUBCHEM_IUPAC_INCHI>  (1) 
InChI=1S/C20H22N4O5.CH4O3S/c1-24(2)17(25)12-28-18(26)11-13-3-9-16(10-4-13)29-19(27)14-5-7-15(8-6-14)23-20(21)22;1-5(2,3)4/h3-10H,11-12H2,1-2H3,(H4,21,22,23);1H3,(H,2,3,4)

>  <PUBCHEM_IUPAC_INCHIKEY>  (1) 
FSEKIHNIDBATFG-UHFFFAOYSA-N

>  <PUBCHEM_EXACT_MASS>  (1) 
494.14713497

>  <PUBCHEM_MOLECULAR_FORMULA>  (1) 
C21H26N4O8S

>  <PUBCHEM_MOLECULAR_WEIGHT>  (1) 
494.5

>  <PUBCHEM_SMILES>  (1) 
CN(C)C(=O)COC(=O)CC1=CC=C(C=C1)OC(=O)C2=CC=C(C=C2)N=C(N)N.CS(=O)(=O)O

>  <PUBCHEM_CONNECTIVITY_SMILES>  (1) 
CN(C)C(=O)COC(=O)CC1=CC=C(C=C1)OC(=O)C2=CC=C(C=C2)N=C(N)N.CS(=O)(=O)O

>  <PUBCHEM_CACTVS_TPSA>  (1) 
200

>  <PUBCHEM_MONOISOTOPIC_WEIGHT>  (1) 
494.14713497

>  <PUBCHEM_TOTAL_CHARGE>  (1) 
0

>  <PUBCHEM_HEAVY_ATOM_COUNT>  (1) 
34

>  <PUBCHEM_ATOM_DEF_STEREO_COUNT>  (1) 
0

>  <PUBCHEM_ATOM_UDEF_STEREO_COUNT>  (1) 
0

>  <PUBCHEM_BOND_DEF_STEREO_COUNT>  (1) 
0

>  <PUBCHEM_BOND_UDEF_STEREO_COUNT>  (1) 
0

>  <PUBCHEM_ISOTOPIC_ATOM_COUNT>  (1) 
0

>  <PUBCHEM_COMPONENT_COUNT>  (1) 
2

>  <PUBCHEM_CACTVS_TAUTO_COUNT>  (1) 
-1

>  <PUBCHEM_COORDINATE_TYPE>  (1) 
1
5
255

>  <PUBCHEM_BONDANNOTATIONS>  (1) 
14  16  8
14  17  8
16  19  8
17  20  8
18  19  8
18  20  8
23  26  8
23  27  8
26  29  8
27  30  8
28  29  8
28  30  8

$$$$
