3194
     RDKit          3D

 25 27  0  0  0  0  0  0  0  0999 V2000
   -1.8200   -0.0699    0.5228 Se  0  0  0  0  0  2  0  0  0  0  0  0
   -0.0994    0.5495   -1.7025 O   0  0  0  0  0  0  0  0  0  0  0  0
    0.4170   -0.0141    0.4387 N   0  0  0  0  0  0  0  0  0  0  0  0
   -1.8378    0.1324   -0.2430 C   0  0  0  0  0  0  0  0  0  0  0  0
   -2.2036   -0.2168    1.0613 C   0  0  0  0  0  0  0  0  0  0  0  0
   -0.4835    0.2270   -0.5435 C   0  0  0  0  0  0  0  0  0  0  0  0
    1.8399   -0.0443    0.2639 C   0  0  0  0  0  0  0  0  0  0  0  0
   -2.8419    0.3741   -1.2010 C   0  0  0  0  0  0  0  0  0  0  0  0
   -3.5513   -0.3256    1.4142 C   0  0  0  0  0  0  0  0  0  0  0  0
    2.4289   -0.7384   -0.8076 C   0  0  0  0  0  0  0  0  0  0  0  0
    2.6587    0.5805    1.2136 C   0  0  0  0  0  0  0  0  0  0  0  0
   -4.1907    0.2645   -0.8451 C   0  0  0  0  0  0  0  0  0  0  0  0
   -4.5452   -0.0850    0.4614 C   0  0  0  0  0  0  0  0  0  0  0  0
    3.8208   -0.7758   -0.9394 C   0  0  0  0  0  0  0  0  0  0  0  0
    4.0503    0.5418    1.0789 C   0  0  0  0  0  0  0  0  0  0  0  0
    4.6309   -0.1332    0.0012 C   0  0  0  0  0  0  0  0  0  0  0  0
   -2.5891    0.6457   -2.2186 H   0  0  0  0  0  0  0  0  0  0  0  0
   -3.8220   -0.5963    2.4259 H   0  0  0  0  0  0  0  0  0  0  0  0
    1.8142   -1.2591   -1.5304 H   0  0  0  0  0  0  0  0  0  0  0  0
    2.2166    1.1014    2.0537 H   0  0  0  0  0  0  0  0  0  0  0  0
   -4.9611    0.4505   -1.5823 H   0  0  0  0  0  0  0  0  0  0  0  0
   -5.5890   -0.1693    0.7349 H   0  0  0  0  0  0  0  0  0  0  0  0
    4.2714   -1.3080   -1.7671 H   0  0  0  0  0  0  0  0  0  0  0  0
    4.6783    1.0326    1.8111 H   0  0  0  0  0  0  0  0  0  0  0  0
    5.7080   -0.1640   -0.1011 H   0  0  0  0  0  0  0  0  0  0  0  0
  1  3  1  0
  1  5  1  0
  2  6  2  0
  3  6  1  0
  3  7  1  0
  4  5  2  0
  4  6  1  0
  4  8  1  0
  5  9  1  0
  7 10  2  0
  7 11  1  0
  8 12  2  0
  9 13  2  0
 10 14  1  0
 11 15  2  0
 12 13  1  0
 14 16  2  0
 15 16  1  0
  8 17  1  0
  9 18  1  0
 10 19  1  0
 11 20  1  0
 12 21  1  0
 13 22  1  0
 14 23  1  0
 15 24  1  0
 16 25  1  0
M  END
>  <PUBCHEM_COMPOUND_CID>  (1) 
3194

>  <PUBCHEM_COMPOUND_CANONICALIZED>  (1) 
1

>  <PUBCHEM_CACTVS_COMPLEXITY>  (1) 
275

>  <PUBCHEM_CACTVS_HBOND_ACCEPTOR>  (1) 
1

>  <PUBCHEM_CACTVS_HBOND_DONOR>  (1) 
0

>  <PUBCHEM_CACTVS_ROTATABLE_BOND>  (1) 
1

>  <PUBCHEM_CACTVS_SUBSKEYS>  (1) 
AAADccByIAAAAAAAIAAAAAAAAAAAAWAAAAAwYAAAAAAAAFgBQAAAHgCAAAAADAiBmAAwwIIAAACIAiVSUACCAAAlAgAIiAEAZMgIIDLAlZGEIQhghADIyYcYiACOAAAAAAAAAAAAAAAAAAAAAAAAAAAAAA==

>  <PUBCHEM_IUPAC_OPENEYE_NAME>  (1) 
2-phenyl-1,2-benzoselenazol-3-one

>  <PUBCHEM_IUPAC_CAS_NAME>  (1) 
2-phenyl-1,2-benzoselenazol-3-one

>  <PUBCHEM_IUPAC_NAME_MARKUP>  (1) 
2-phenyl-1,2-benzoselenazol-3-one

>  <PUBCHEM_IUPAC_NAME>  (1) 
2-phenyl-1,2-benzoselenazol-3-one

>  <PUBCHEM_IUPAC_SYSTEMATIC_NAME>  (1) 
2-phenyl-1,2-benzoselenazol-3-one

>  <PUBCHEM_IUPAC_TRADITIONAL_NAME>  (1) 
2-phenyl-1,2-benzoselenazol-3-one

>  <PUBCHEM_IUPAC_INCHI>  (1) 
InChI=1S/C13H9NOSe/c15-13-11-8-4-5-9-12(11)16-14(13)10-6-2-1-3-7-10/h1-9H

>  <PUBCHEM_IUPAC_INCHIKEY>  (1) 
DYEFUKCXAQOFHX-UHFFFAOYSA-N

>  <PUBCHEM_EXACT_MASS>  (1) 
274.98494

>  <PUBCHEM_MOLECULAR_FORMULA>  (1) 
C13H9NOSe

>  <PUBCHEM_MOLECULAR_WEIGHT>  (1) 
274.19

>  <PUBCHEM_SMILES>  (1) 
C1=CC=C(C=C1)N2C(=O)C3=CC=CC=C3[Se]2

>  <PUBCHEM_CONNECTIVITY_SMILES>  (1) 
C1=CC=C(C=C1)N2C(=O)C3=CC=CC=C3[Se]2

>  <PUBCHEM_CACTVS_TPSA>  (1) 
20.3

>  <PUBCHEM_MONOISOTOPIC_WEIGHT>  (1) 
274.98494

>  <PUBCHEM_TOTAL_CHARGE>  (1) 
0

>  <PUBCHEM_HEAVY_ATOM_COUNT>  (1) 
16

>  <PUBCHEM_ATOM_DEF_STEREO_COUNT>  (1) 
0

>  <PUBCHEM_ATOM_UDEF_STEREO_COUNT>  (1) 
0

>  <PUBCHEM_BOND_DEF_STEREO_COUNT>  (1) 
0

>  <PUBCHEM_BOND_UDEF_STEREO_COUNT>  (1) 
0

>  <PUBCHEM_ISOTOPIC_ATOM_COUNT>  (1) 
0

>  <PUBCHEM_COMPONENT_COUNT>  (1) 
1

>  <PUBCHEM_CACTVS_TAUTO_COUNT>  (1) 
-1

>  <PUBCHEM_COORDINATE_TYPE>  (1) 
1
5
255

>  <PUBCHEM_BONDANNOTATIONS>  (1) 
1  3  8
1  5  8
10  14  8
11  15  8
12  13  8
14  16  8
15  16  8
3  6  8
4  5  8
4  6  8
4  8  8
5  9  8
7  10  8
7  11  8
8  12  8
9  13  8

$$$$
