6321424
     RDKit          3D

136142  0  0  1  0  0  0  0  0999 V2000
   -5.3441    2.3887   -0.5223 O   0  0  0  0  0  0  0  0  0  0  0  0
   -3.3766    1.9824   -1.7585 O   0  0  0  0  0  0  0  0  0  0  0  0
   -4.7679   -1.8750   -1.2051 O   0  0  0  0  0  0  0  0  0  0  0  0
   -3.7472   -6.1846    2.2996 O   0  0  0  0  0  0  0  0  0  0  0  0
   -4.9560   -3.3459    1.9172 O   0  0  0  0  0  0  0  0  0  0  0  0
   -4.5176   -7.1052   -0.2741 O   0  0  0  0  0  0  0  0  0  0  0  0
   -6.8026   -2.1524   -0.1457 O   0  0  0  0  0  0  0  0  0  0  0  0
    2.3907   -0.4356    0.9100 O   0  0  0  0  0  0  0  0  0  0  0  0
    4.6144   -0.9824    0.9451 O   0  0  0  0  0  0  0  0  0  0  0  0
    6.7140    1.1606    0.6151 O   0  0  0  0  0  0  0  0  0  0  0  0
    4.9415    0.2101   -2.4099 O   0  0  0  0  0  0  0  0  0  0  0  0
    8.2930    1.3960    2.2613 O   0  0  0  0  0  0  0  0  0  0  0  0
   10.9796    0.9509   -0.4039 O   0  0  0  0  0  0  0  0  0  0  0  0
   11.6525    2.8817    2.0907 O   0  0  0  0  0  0  0  0  0  0  0  0
   -4.7988    1.8745   -1.7359 C   0  0  2  0  0  0  0  0  0  0  0  0
   -5.0211    3.7608   -0.3138 C   0  0  1  0  0  0  0  0  0  0  0  0
   -5.6782    4.6378   -1.4307 C   0  0  2  0  0  0  0  0  0  0  0  0
   -5.3898    2.6462   -2.9394 C   0  0  0  0  0  0  0  0  0  0  0  0
   -5.2347    0.3981   -1.9003 C   0  0  0  0  0  0  0  0  0  0  0  0
   -5.1706    4.1485   -2.7968 C   0  0  0  0  0  0  0  0  0  0  0  0
   -4.5520   -0.5059   -0.8750 C   0  0  2  0  0  0  0  0  0  0  0  0
   -2.7513    1.2342   -0.7199 C   0  0  1  0  0  0  0  0  0  0  0  0
   -3.0458   -0.2577   -0.9006 C   0  0  0  0  0  0  0  0  0  0  0  0
   -5.4149    4.1069    1.1595 C   0  0  2  0  0  0  0  0  0  0  0  0
   -4.6557   -4.3565    0.9790 C   0  0  2  0  0  0  0  0  0  0  0  0
   -5.4478   -4.1374   -0.3742 C   0  0  2  0  0  0  0  0  0  0  0  0
   -4.9337   -5.7168    1.6716 C   0  0  1  0  0  0  0  0  0  0  0  0
   -5.3879    6.1421   -1.3067 C   0  0  0  0  0  0  0  0  0  0  0  0
   -1.2370    1.5503   -0.7306 C   0  0  0  0  0  0  0  0  0  0  0  0
   -6.9306    4.3144    1.4050 C   0  0  0  0  0  0  0  0  0  0  0  0
   -5.4856   -6.7791    0.6998 C   0  0  1  0  0  0  0  0  0  0  0  0
   -3.1771   -4.4593    0.8258 C   0  0  0  0  0  0  0  0  0  0  0  0
   -4.6046    5.2801    1.7446 C   0  0  0  0  0  0  0  0  0  0  0  0
   -5.7538   -2.6750   -0.6179 C   0  0  0  0  0  0  0  0  0  0  0  0
   -6.7150   -4.9666   -0.4404 C   0  0  0  0  0  0  0  0  0  0  0  0
   -6.7340   -6.2223    0.0357 C   0  0  0  0  0  0  0  0  0  0  0  0
   -2.6560   -5.4636    1.7796 C   0  0  0  0  0  0  0  0  0  0  0  0
   -0.3726    0.5869    0.0761 C   0  0  0  0  0  0  0  0  0  0  0  0
   -7.7543    3.0490    1.1437 C   0  0  0  0  0  0  0  0  0  0  0  0
   -2.4057   -3.7013    0.0269 C   0  0  0  0  0  0  0  0  0  0  0  0
    0.4090   -0.3903   -0.4574 C   0  0  0  0  0  0  0  0  0  0  0  0
    1.3367   -1.2520    0.4165 C   0  0  2  0  0  0  0  0  0  0  0  0
   -7.9910   -7.0511   -0.0694 C   0  0  0  0  0  0  0  0  0  0  0  0
    0.6702   -2.0465    1.5902 C   0  0  2  0  0  0  0  0  0  0  0  0
   -1.0035   -3.4135    0.3432 C   0  0  0  0  0  0  0  0  0  0  0  0
    3.5693   -0.4965    0.1200 C   0  0  2  0  0  0  0  0  0  0  0  0
    6.3090    0.2506   -0.3955 C   0  0  2  0  0  0  0  0  0  0  0  0
    5.1732    0.9145   -1.2027 C   0  0  2  0  0  0  0  0  0  0  0  0
    3.8854    0.9217   -0.3769 C   0  0  0  0  0  0  0  0  0  0  0  0
   -0.7310   -2.5060    1.2863 C   0  0  0  0  0  0  0  0  0  0  0  0
    5.8563   -1.0844    0.2608 C   0  0  2  0  0  0  0  0  0  0  0  0
    0.5186   -0.5552   -1.9592 C   0  0  0  0  0  0  0  0  0  0  0  0
    0.7075   -1.3270    2.9499 C   0  0  0  0  0  0  0  0  0  0  0  0
    8.1071    1.1009    0.8817 C   0  0  2  0  0  0  0  0  0  0  0  0
    8.8502    2.0487   -0.0868 C   0  0  0  0  0  0  0  0  0  0  0  0
   10.3585    2.0634    0.2203 C   0  0  1  0  0  0  0  0  0  0  0  0
   10.6300    1.9803    1.7445 C   0  0  2  0  0  0  0  0  0  0  0  0
    5.8959   -2.2924   -0.6916 C   0  0  0  0  0  0  0  0  0  0  0  0
    9.3509    2.2993    2.5545 C   0  0  2  0  0  0  0  0  0  0  0  0
    9.6270    2.2273    4.0591 C   0  0  0  0  0  0  0  0  0  0  0  0
    5.6290    0.8124   -3.4853 C   0  0  0  0  0  0  0  0  0  0  0  0
   11.5818    1.3211   -1.6247 C   0  0  0  0  0  0  0  0  0  0  0  0
   -4.4371   -2.5310    1.6909 H   0  0  0  0  0  0  0  0  0  0  0  0
   -4.9414   -7.7282   -0.9132 H   0  0  0  0  0  0  0  0  0  0  0  0
   12.5029    2.4839    1.7709 H   0  0  0  0  0  0  0  0  0  0  0  0
   -3.9216    3.8954   -0.3850 H   0  0  0  0  0  0  0  0  0  0  0  0
   -6.7837    4.5022   -1.4136 H   0  0  0  0  0  0  0  0  0  0  0  0
   -4.9203    2.3001   -3.8887 H   0  0  0  0  0  0  0  0  0  0  0  0
   -6.4856    2.4570   -3.0111 H   0  0  0  0  0  0  0  0  0  0  0  0
   -4.9752    0.0334   -2.9173 H   0  0  0  0  0  0  0  0  0  0  0  0
   -6.3361    0.3069   -1.7799 H   0  0  0  0  0  0  0  0  0  0  0  0
   -4.0858    4.3685   -2.8968 H   0  0  0  0  0  0  0  0  0  0  0  0
   -5.7136    4.6696   -3.6162 H   0  0  0  0  0  0  0  0  0  0  0  0
   -4.9354   -0.2801    0.1493 H   0  0  0  0  0  0  0  0  0  0  0  0
   -3.1411    1.5541    0.2744 H   0  0  0  0  0  0  0  0  0  0  0  0
   -2.6390   -0.6137   -1.8679 H   0  0  0  0  0  0  0  0  0  0  0  0
   -2.5870   -0.8323   -0.0717 H   0  0  0  0  0  0  0  0  0  0  0  0
   -5.1080    3.2326    1.7740 H   0  0  0  0  0  0  0  0  0  0  0  0
   -4.8185   -4.4907   -1.2206 H   0  0  0  0  0  0  0  0  0  0  0  0
   -5.7028   -5.5682    2.4667 H   0  0  0  0  0  0  0  0  0  0  0  0
   -5.9998    6.5912   -0.5036 H   0  0  0  0  0  0  0  0  0  0  0  0
   -5.6854    6.6677   -2.2376 H   0  0  0  0  0  0  0  0  0  0  0  0
   -4.3086    6.3271   -1.1311 H   0  0  0  0  0  0  0  0  0  0  0  0
   -0.8673    1.6655   -1.7646 H   0  0  0  0  0  0  0  0  0  0  0  0
   -1.1132    2.5515   -0.2705 H   0  0  0  0  0  0  0  0  0  0  0  0
   -7.3328    5.1489    0.7981 H   0  0  0  0  0  0  0  0  0  0  0  0
   -7.0872    4.5932    2.4721 H   0  0  0  0  0  0  0  0  0  0  0  0
   -5.7302   -7.6999    1.2788 H   0  0  0  0  0  0  0  0  0  0  0  0
   -4.9822    6.2694    1.4123 H   0  0  0  0  0  0  0  0  0  0  0  0
   -4.6711    5.2659    2.8560 H   0  0  0  0  0  0  0  0  0  0  0  0
   -3.5281    5.1944    1.4764 H   0  0  0  0  0  0  0  0  0  0  0  0
   -7.5989   -4.5595   -0.9229 H   0  0  0  0  0  0  0  0  0  0  0  0
   -2.1364   -4.9404    2.6038 H   0  0  0  0  0  0  0  0  0  0  0  0
   -1.9485   -6.1622    1.2797 H   0  0  0  0  0  0  0  0  0  0  0  0
   -0.3774    0.7322    1.1452 H   0  0  0  0  0  0  0  0  0  0  0  0
   -7.3153    2.1819    1.6784 H   0  0  0  0  0  0  0  0  0  0  0  0
   -8.7930    3.1973    1.5047 H   0  0  0  0  0  0  0  0  0  0  0  0
   -7.7984    2.8295    0.0575 H   0  0  0  0  0  0  0  0  0  0  0  0
   -2.8456   -3.0931   -0.7347 H   0  0  0  0  0  0  0  0  0  0  0  0
    1.7105   -2.0793   -0.2336 H   0  0  0  0  0  0  0  0  0  0  0  0
   -8.2877   -7.1502   -1.1346 H   0  0  0  0  0  0  0  0  0  0  0  0
   -8.8115   -6.5558    0.4954 H   0  0  0  0  0  0  0  0  0  0  0  0
   -7.8437   -8.0666    0.3486 H   0  0  0  0  0  0  0  0  0  0  0  0
    1.2786   -2.9728    1.7432 H   0  0  0  0  0  0  0  0  0  0  0  0
   -0.2184   -3.8186   -0.2849 H   0  0  0  0  0  0  0  0  0  0  0  0
    3.4691   -1.1397   -0.7800 H   0  0  0  0  0  0  0  0  0  0  0  0
    7.1378    0.0401   -1.1065 H   0  0  0  0  0  0  0  0  0  0  0  0
    5.4374    1.9835   -1.3863 H   0  0  0  0  0  0  0  0  0  0  0  0
    3.0484    1.2988   -1.0022 H   0  0  0  0  0  0  0  0  0  0  0  0
    3.9944    1.6033    0.4946 H   0  0  0  0  0  0  0  0  0  0  0  0
   -1.5485   -2.0864    1.8667 H   0  0  0  0  0  0  0  0  0  0  0  0
    6.6066   -1.3235    1.0441 H   0  0  0  0  0  0  0  0  0  0  0  0
   -0.4643   -0.8190   -2.3983 H   0  0  0  0  0  0  0  0  0  0  0  0
    0.8980    0.3824   -2.4192 H   0  0  0  0  0  0  0  0  0  0  0  0
    1.2284   -1.3652   -2.2370 H   0  0  0  0  0  0  0  0  0  0  0  0
    0.1212   -0.3882    2.9402 H   0  0  0  0  0  0  0  0  0  0  0  0
    1.7529   -1.0968    3.2431 H   0  0  0  0  0  0  0  0  0  0  0  0
    0.2800   -1.9905    3.7315 H   0  0  0  0  0  0  0  0  0  0  0  0
    8.5094    0.0730    0.7281 H   0  0  0  0  0  0  0  0  0  0  0  0
    8.6867    1.7352   -1.1411 H   0  0  0  0  0  0  0  0  0  0  0  0
    8.4359    3.0756    0.0109 H   0  0  0  0  0  0  0  0  0  0  0  0
   10.7556    3.0395   -0.1498 H   0  0  0  0  0  0  0  0  0  0  0  0
   10.9424    0.9445    2.0114 H   0  0  0  0  0  0  0  0  0  0  0  0
    6.9473   -2.4993   -0.9844 H   0  0  0  0  0  0  0  0  0  0  0  0
    5.3151   -2.1203   -1.6190 H   0  0  0  0  0  0  0  0  0  0  0  0
    5.4904   -3.1890   -0.1742 H   0  0  0  0  0  0  0  0  0  0  0  0
    9.0192    3.3401    2.3328 H   0  0  0  0  0  0  0  0  0  0  0  0
    9.9884    1.2166    4.3390 H   0  0  0  0  0  0  0  0  0  0  0  0
    8.6914    2.4386    4.6168 H   0  0  0  0  0  0  0  0  0  0  0  0
   10.3845    2.9807    4.3606 H   0  0  0  0  0  0  0  0  0  0  0  0
    5.1413    1.7678   -3.7664 H   0  0  0  0  0  0  0  0  0  0  0  0
    6.7066    0.9814   -3.2527 H   0  0  0  0  0  0  0  0  0  0  0  0
    5.5806    0.1329   -4.3595 H   0  0  0  0  0  0  0  0  0  0  0  0
   10.8325    1.7489   -2.3281 H   0  0  0  0  0  0  0  0  0  0  0  0
   12.0144    0.4159   -2.0998 H   0  0  0  0  0  0  0  0  0  0  0  0
   12.4126    2.0393   -1.4538 H   0  0  0  0  0  0  0  0  0  0  0  0
 15  1  1  1
  1 16  1  0
  2 15  1  0
  2 22  1  0
  3 21  1  0
  3 34  1  0
  4 27  1  0
  4 37  1  0
 25  5  1  1
 31  6  1  0
  7 34  2  0
 42  8  1  0
 46  8  1  0
  9 46  1  0
  9 51  1  0
 47 10  1  0
 54 10  1  0
 48 11  1  0
 11 61  1  0
 12 54  1  0
 12 59  1  0
 56 13  1  0
 13 62  1  0
 57 14  1  0
 15 18  1  0
 15 19  1  0
 16 17  1  0
 16 24  1  0
 17 20  1  0
 17 28  1  0
 18 20  1  0
 19 21  1  0
 21 23  1  0
 22 23  1  0
 22 29  1  0
 24 30  1  0
 24 33  1  0
 25 26  1  0
 25 27  1  0
 25 32  1  0
 26 34  1  0
 26 35  1  0
 27 31  1  0
 29 38  1  0
 30 39  1  0
 31 36  1  0
 32 37  1  0
 32 40  2  0
 35 36  2  0
 36 43  1  0
 38 41  2  0
 40 45  1  0
 41 42  1  0
 41 52  1  0
 42 44  1  0
 44 50  1  0
 44 53  1  0
 45 50  2  0
 46 49  1  0
 47 48  1  0
 47 51  1  0
 48 49  1  0
 51 58  1  0
 54 55  1  0
 55 56  1  0
 56 57  1  0
 57 59  1  0
 59 60  1  0
  5 63  1  0
  6 64  1  0
 14 65  1  0
 16 66  1  1
 17 67  1  6
 18 68  1  0
 18 69  1  0
 19 70  1  0
 19 71  1  0
 20 72  1  0
 20 73  1  0
 21 74  1  1
 22 75  1  1
 23 76  1  0
 23 77  1  0
 24 78  1  1
 26 79  1  6
 27 80  1  1
 28 81  1  0
 28 82  1  0
 28 83  1  0
 29 84  1  0
 29 85  1  0
 30 86  1  0
 30 87  1  0
 31 88  1  1
 33 89  1  0
 33 90  1  0
 33 91  1  0
 35 92  1  0
 37 93  1  0
 37 94  1  0
 38 95  1  0
 39 96  1  0
 39 97  1  0
 39 98  1  0
 40 99  1  0
 42100  1  6
 43101  1  0
 43102  1  0
 43103  1  0
 44104  1  1
 45105  1  0
 46106  1  6
 47107  1  6
 48108  1  6
 49109  1  0
 49110  1  0
 50111  1  0
 51112  1  1
 52113  1  0
 52114  1  0
 52115  1  0
 53116  1  0
 53117  1  0
 53118  1  0
 54119  1  1
 55120  1  0
 55121  1  0
 56122  1  6
 57123  1  6
 58124  1  0
 58125  1  0
 58126  1  0
 59127  1  1
 60128  1  0
 60129  1  0
 60130  1  0
 61131  1  0
 61132  1  0
 61133  1  0
 62134  1  0
 62135  1  0
 62136  1  0
M  END
>  <PUBCHEM_COMPOUND_CID>  (1) 
6321424

>  <PUBCHEM_COMPOUND_CANONICALIZED>  (1) 
1

>  <PUBCHEM_CACTVS_COMPLEXITY>  (1) 
1680

>  <PUBCHEM_CACTVS_HBOND_ACCEPTOR>  (1) 
14

>  <PUBCHEM_CACTVS_HBOND_DONOR>  (1) 
3

>  <PUBCHEM_CACTVS_ROTATABLE_BOND>  (1) 
8

>  <PUBCHEM_CACTVS_SUBSKEYS>  (1) 
AAADcfB8PAAAAAAAAAAAAAAAAAAAASAAAAAkSJEiAAAAAEAAAAAAGgAACAAADVSwgAMCCAAABgCIAiDSCAAAAAAgAAAICAEAAAgZFBYAIQAiUAAF4AAPsAPK7OzOgAAAAAAAAAAAAAAAAAAAAAAAAAAAAA==

>  <PUBCHEM_IUPAC_OPENEYE_NAME>  (1) 
(1R,4S,5'S,6R,6'R,8R,10E,12S,13S,14E,16E,20R,21R,24S)-21,24-dihydroxy-12-[(2R,4S,5S,6S)-5-[(2S,4S,5S,6S)-5-hydroxy-4-methoxy-6-methyl-tetrahydropyran-2-yl]oxy-4-methoxy-6-methyl-tetrahydropyran-2-yl]oxy-5',11,13,22-tetramethyl-6'-[(1S)-1-methylpropyl]spiro[3,7,19-trioxatetracyclo[15.6.1.14,8.020,24]pentacosa-10,14,16,22-tetraene-6,2'-tetrahydropyran]-2-one

>  <PUBCHEM_IUPAC_CAS_NAME>  (1) 
(1R,4S,5'S,6R,6'R,8R,10E,12S,13S,14E,16E,20R,21R,24S)-6'-[(2S)-butan-2-yl]-21,24-dihydroxy-12-[[(2R,4S,5S,6S)-5-[[(2S,4S,5S,6S)-5-hydroxy-4-methoxy-6-methyl-2-oxanyl]oxy]-4-methoxy-6-methyl-2-oxanyl]oxy]-5',11,13,22-tetramethyl-2-spiro[3,7,19-trioxatetracyclo[15.6.1.14,8.020,24]pentacosa-10,14,16,22-tetraene-6,2'-oxane]one

>  <PUBCHEM_IUPAC_NAME_MARKUP>  (1) 
(1<I>R</I>,4<I>S</I>,5&apos;<I>S</I>,6<I>R</I>,6&apos;<I>R</I>,8<I>R</I>,10<I>E</I>,12<I>S</I>,13<I>S</I>,14<I>E</I>,16<I>E</I>,20<I>R</I>,21<I>R</I>,24<I>S</I>)-6&apos;-[(2<I>S</I>)-butan-2-yl]-21,24-dihydroxy-12-[(2<I>R</I>,4<I>S</I>,5<I>S</I>,6<I>S</I>)-5-[(2<I>S</I>,4<I>S</I>,5<I>S</I>,6<I>S</I>)-5-hydroxy-4-methoxy-6-methyloxan-2-yl]oxy-4-methoxy-6-methyloxan-2-yl]oxy-5&apos;,11,13,22-tetramethylspiro[3,7,19-trioxatetracyclo[15.6.1.1<SUP>4,8</SUP>.0<SUP>20,24</SUP>]pentacosa-10,14,16,22-tetraene-6,2&apos;-oxane]-2-one

>  <PUBCHEM_IUPAC_NAME>  (1) 
(1R,4S,5'S,6R,6'R,8R,10E,12S,13S,14E,16E,20R,21R,24S)-6'-[(2S)-butan-2-yl]-21,24-dihydroxy-12-[(2R,4S,5S,6S)-5-[(2S,4S,5S,6S)-5-hydroxy-4-methoxy-6-methyloxan-2-yl]oxy-4-methoxy-6-methyloxan-2-yl]oxy-5',11,13,22-tetramethylspiro[3,7,19-trioxatetracyclo[15.6.1.14,8.020,24]pentacosa-10,14,16,22-tetraene-6,2'-oxane]-2-one

>  <PUBCHEM_IUPAC_SYSTEMATIC_NAME>  (1) 
(1R,4S,5'S,6R,6'R,8R,10E,12S,13S,14E,16E,20R,21R,24S)-6'-[(2S)-butan-2-yl]-12-[(2R,4S,5S,6S)-4-methoxy-5-[(2S,4S,5S,6S)-4-methoxy-6-methyl-5-oxidanyl-oxan-2-yl]oxy-6-methyl-oxan-2-yl]oxy-5',11,13,22-tetramethyl-21,24-bis(oxidanyl)spiro[3,7,19-trioxatetracyclo[15.6.1.14,8.020,24]pentacosa-10,14,16,22-tetraene-6,2'-oxane]-2-one

>  <PUBCHEM_IUPAC_TRADITIONAL_NAME>  (1) 
(1R,4S,5'S,6R,6'R,8R,10E,12S,13S,14E,16E,20R,21R,24S)-21,24-dihydroxy-12-[(2R,4S,5S,6S)-5-[(2S,4S,5S,6S)-5-hydroxy-4-methoxy-6-methyl-tetrahydropyran-2-yl]oxy-4-methoxy-6-methyl-tetrahydropyran-2-yl]oxy-5',11,13,22-tetramethyl-6'-[(1S)-1-methylpropyl]spiro[3,7,19-trioxatetracyclo[15.6.1.14,8.020,24]pentacosa-10,14,16,22-tetraene-6,2'-tetrahydropyran]-2-one

>  <PUBCHEM_IUPAC_INCHI>  (1) 
InChI=1S/C48H74O14/c1-11-25(2)43-28(5)17-18-47(62-43)23-34-20-33(61-47)16-15-27(4)42(26(3)13-12-14-32-24-55-45-40(49)29(6)19-35(46(51)58-34)48(32,45)52)59-39-22-37(54-10)44(31(8)57-39)60-38-21-36(53-9)41(50)30(7)56-38/h12-15,19,25-26,28,30-31,33-45,49-50,52H,11,16-18,20-24H2,1-10H3/b13-12+,27-15+,32-14+/t25-,26-,28-,30-,31-,33+,34-,35-,36-,37-,38-,39-,40+,41-,42-,43+,44-,45+,47+,48+/m0/s1

>  <PUBCHEM_IUPAC_INCHIKEY>  (1) 
AZSNMRSAGSSBNP-XPNPUAGNSA-N

>  <PUBCHEM_XLOGP3_AA>  (1) 
4.1

>  <PUBCHEM_EXACT_MASS>  (1) 
874.50785703

>  <PUBCHEM_MOLECULAR_FORMULA>  (1) 
C48H74O14

>  <PUBCHEM_MOLECULAR_WEIGHT>  (1) 
875.1

>  <PUBCHEM_SMILES>  (1) 
CC[C@H](C)[C@@H]1[C@H](CC[C@@]2(O1)C[C@@H]3C[C@H](O2)C/C=C(/[C@H]([C@H](/C=C/C=C/4\CO[C@H]5[C@@]4([C@@H](C=C([C@H]5O)C)C(=O)O3)O)C)O[C@H]6C[C@@H]([C@H]([C@@H](O6)C)O[C@H]7C[C@@H]([C@H]([C@@H](O7)C)O)OC)OC)\C)C

>  <PUBCHEM_CONNECTIVITY_SMILES>  (1) 
CCC(C)C1C(CCC2(O1)CC3CC(O2)CC=C(C(C(C=CC=C4COC5C4(C(C=C(C5O)C)C(=O)O3)O)C)OC6CC(C(C(O6)C)OC7CC(C(C(O7)C)O)OC)OC)C)C

>  <PUBCHEM_CACTVS_TPSA>  (1) 
170

>  <PUBCHEM_MONOISOTOPIC_WEIGHT>  (1) 
874.50785703

>  <PUBCHEM_TOTAL_CHARGE>  (1) 
0

>  <PUBCHEM_HEAVY_ATOM_COUNT>  (1) 
62

>  <PUBCHEM_ATOM_DEF_STEREO_COUNT>  (1) 
20

>  <PUBCHEM_ATOM_UDEF_STEREO_COUNT>  (1) 
0

>  <PUBCHEM_BOND_DEF_STEREO_COUNT>  (1) 
3

>  <PUBCHEM_BOND_UDEF_STEREO_COUNT>  (1) 
0

>  <PUBCHEM_ISOTOPIC_ATOM_COUNT>  (1) 
0

>  <PUBCHEM_COMPONENT_COUNT>  (1) 
1

>  <PUBCHEM_CACTVS_TAUTO_COUNT>  (1) 
-1

>  <PUBCHEM_COORDINATE_TYPE>  (1) 
1
5
255

>  <PUBCHEM_BONDANNOTATIONS>  (1) 
15  1  5
47  10  5
54  10  5
48  11  6
56  13  6
57  14  5
16  63  6
17  28  6
21  71  5
22  72  5
24  33  6
26  76  6
27  77  5
44  53  5
25  5  5
51  58  6
59  60  6
31  6  6
42  8  5
46  8  5

$$$$
