392622
     RDKit          3D

 98101  0  0  1  0  0  0  0  0999 V2000
    7.9450   -1.9576   -0.1159 S   0  0  0  0  0  0  0  0  0  0  0  0
   -4.0281   -5.5308    0.3463 S   0  0  0  0  0  0  0  0  0  0  0  0
   -4.0857    1.9652   -3.2916 O   0  0  0  0  0  0  0  0  0  0  0  0
   -0.3875   -0.0983    0.3783 O   0  0  0  0  0  0  0  0  0  0  0  0
   -4.3334   -2.3854    1.0609 O   0  0  0  0  0  0  0  0  0  0  0  0
   -5.9470   -1.9643   -0.5369 O   0  0  0  0  0  0  0  0  0  0  0  0
    4.3674    1.0353    0.8520 O   0  0  0  0  0  0  0  0  0  0  0  0
   -0.2007    1.7057   -1.0969 N   0  0  0  0  0  0  0  0  0  0  0  0
   -4.0493   -0.5950   -0.5746 N   0  0  0  0  0  0  0  0  0  0  0  0
    2.3390   -0.1153    0.9306 N   0  0  0  0  0  0  0  0  0  0  0  0
    4.3165   -0.7845    2.3269 N   0  0  0  0  0  0  0  0  0  0  0  0
    8.0542   -0.8122    2.1166 N   0  0  0  0  0  0  0  0  0  0  0  0
   -6.3638   -6.3830   -0.0191 N   0  0  0  0  0  0  0  0  0  0  0  0
   -1.6508    1.8792   -1.2508 C   0  0  2  0  0  0  0  0  0  0  0  0
   -2.1448    0.8779   -2.3236 C   0  0  0  0  0  0  0  0  0  0  0  0
   -3.6651    0.8034   -2.6233 C   0  0  1  0  0  0  0  0  0  0  0  0
   -4.6221    0.4444   -1.4426 C   0  0  2  0  0  0  0  0  0  0  0  0
   -1.9675    3.3475   -1.6116 C   0  0  0  0  0  0  0  0  0  0  0  0
   -5.0894    1.6564   -0.6008 C   0  0  0  0  0  0  0  0  0  0  0  0
    1.8508    0.3737   -0.3667 C   0  0  1  0  0  0  0  0  0  0  0  0
    2.2326   -0.6280   -1.4924 C   0  0  0  0  0  0  0  0  0  0  0  0
    0.3641    0.6426   -0.3154 C   0  0  0  0  0  0  0  0  0  0  0  0
   -1.3950    4.3038   -0.5935 C   0  0  0  0  0  0  0  0  0  0  0  0
   -6.1859    1.2598    0.3563 C   0  0  0  0  0  0  0  0  0  0  0  0
    1.5327   -1.9911   -1.3492 C   0  0  0  0  0  0  0  0  0  0  0  0
    1.9771   -0.0444   -2.8915 C   0  0  0  0  0  0  0  0  0  0  0  0
   -2.0005    4.4409    0.6678 C   0  0  0  0  0  0  0  0  0  0  0  0
   -0.2232    5.0307   -0.8752 C   0  0  0  0  0  0  0  0  0  0  0  0
   -4.8245   -1.6749   -0.0400 C   0  0  0  0  0  0  0  0  0  0  0  0
   -5.8891    0.9700    1.7009 C   0  0  0  0  0  0  0  0  0  0  0  0
   -7.5022    1.0945   -0.1074 C   0  0  0  0  0  0  0  0  0  0  0  0
    3.6985    0.0887    1.3533 C   0  0  0  0  0  0  0  0  0  0  0  0
   -1.4449    5.2950    1.6283 C   0  0  0  0  0  0  0  0  0  0  0  0
    0.3217    5.8899    0.0847 C   0  0  0  0  0  0  0  0  0  0  0  0
   -6.8956    0.5354    2.5680 C   0  0  0  0  0  0  0  0  0  0  0  0
   -8.5062    0.6575    0.7637 C   0  0  0  0  0  0  0  0  0  0  0  0
   -0.2875    6.0223    1.3351 C   0  0  0  0  0  0  0  0  0  0  0  0
   -8.2041    0.3839    2.1005 C   0  0  0  0  0  0  0  0  0  0  0  0
    5.6797   -0.5022    2.8021 C   0  0  0  0  0  0  0  0  0  0  0  0
    3.6463   -2.0158    2.7588 C   0  0  0  0  0  0  0  0  0  0  0  0
   -5.1024   -3.3485    1.7792 C   0  0  0  0  0  0  0  0  0  0  0  0
    6.7328   -0.9881    1.8404 C   0  0  0  0  0  0  0  0  0  0  0  0
   -5.2756   -4.5975    0.9733 C   0  0  0  0  0  0  0  0  0  0  0  0
    8.8538   -1.3002    1.1429 C   0  0  0  0  0  0  0  0  0  0  0  0
    6.4711   -1.6223    0.6213 C   0  0  0  0  0  0  0  0  0  0  0  0
   10.3533   -1.1849    1.1782 C   0  0  0  0  0  0  0  0  0  0  0  0
   10.8276   -0.0955    0.2104 C   0  0  0  0  0  0  0  0  0  0  0  0
   11.0189   -2.5273    0.8587 C   0  0  0  0  0  0  0  0  0  0  0  0
   -6.4810   -5.2240    0.6819 C   0  0  0  0  0  0  0  0  0  0  0  0
   -5.0746   -6.6880   -0.2882 C   0  0  0  0  0  0  0  0  0  0  0  0
   -4.9336    1.7421   -3.7561 H   0  0  0  0  0  0  0  0  0  0  0  0
    0.4436    2.2920   -1.6778 H   0  0  0  0  0  0  0  0  0  0  0  0
   -3.1370   -0.4108   -0.1050 H   0  0  0  0  0  0  0  0  0  0  0  0
    1.7418   -0.7842    1.4640 H   0  0  0  0  0  0  0  0  0  0  0  0
   -2.1314    1.6540   -0.2800 H   0  0  0  0  0  0  0  0  0  0  0  0
   -1.6216    1.1072   -3.2785 H   0  0  0  0  0  0  0  0  0  0  0  0
   -1.8025   -0.1413   -2.0392 H   0  0  0  0  0  0  0  0  0  0  0  0
   -3.7513   -0.0453   -3.3436 H   0  0  0  0  0  0  0  0  0  0  0  0
   -5.5347    0.0386   -1.9340 H   0  0  0  0  0  0  0  0  0  0  0  0
   -1.5718    3.5797   -2.6252 H   0  0  0  0  0  0  0  0  0  0  0  0
   -3.0631    3.5070   -1.6470 H   0  0  0  0  0  0  0  0  0  0  0  0
   -5.4816    2.4569   -1.2647 H   0  0  0  0  0  0  0  0  0  0  0  0
   -4.2511    2.0949   -0.0299 H   0  0  0  0  0  0  0  0  0  0  0  0
    2.3488    1.3458   -0.5838 H   0  0  0  0  0  0  0  0  0  0  0  0
    3.3264   -0.8121   -1.4198 H   0  0  0  0  0  0  0  0  0  0  0  0
    1.9239   -2.6997   -2.1102 H   0  0  0  0  0  0  0  0  0  0  0  0
    1.7271   -2.4286   -0.3464 H   0  0  0  0  0  0  0  0  0  0  0  0
    0.4365   -1.8923   -1.4968 H   0  0  0  0  0  0  0  0  0  0  0  0
    2.4804    0.9391   -2.9980 H   0  0  0  0  0  0  0  0  0  0  0  0
    0.8913    0.0812   -3.0789 H   0  0  0  0  0  0  0  0  0  0  0  0
    2.3867   -0.7248   -3.6652 H   0  0  0  0  0  0  0  0  0  0  0  0
   -2.8936    3.8798    0.9132 H   0  0  0  0  0  0  0  0  0  0  0  0
    0.2657    4.9351   -1.8381 H   0  0  0  0  0  0  0  0  0  0  0  0
   -4.8754    1.0700    2.0717 H   0  0  0  0  0  0  0  0  0  0  0  0
   -7.7456    1.2901   -1.1456 H   0  0  0  0  0  0  0  0  0  0  0  0
   -1.9137    5.3956    2.5974 H   0  0  0  0  0  0  0  0  0  0  0  0
    1.2221    6.4489   -0.1373 H   0  0  0  0  0  0  0  0  0  0  0  0
   -6.6599    0.3115    3.6005 H   0  0  0  0  0  0  0  0  0  0  0  0
   -9.5186    0.5319    0.4018 H   0  0  0  0  0  0  0  0  0  0  0  0
    0.1390    6.6831    2.0804 H   0  0  0  0  0  0  0  0  0  0  0  0
   -8.9819    0.0452    2.7730 H   0  0  0  0  0  0  0  0  0  0  0  0
    5.8507   -0.9837    3.7897 H   0  0  0  0  0  0  0  0  0  0  0  0
    5.8048    0.5920    2.9588 H   0  0  0  0  0  0  0  0  0  0  0  0
    2.7502   -1.7658    3.3653 H   0  0  0  0  0  0  0  0  0  0  0  0
    3.3438   -2.6133    1.8718 H   0  0  0  0  0  0  0  0  0  0  0  0
    4.3198   -2.6457    3.3775 H   0  0  0  0  0  0  0  0  0  0  0  0
   -6.0897   -2.9136    2.0548 H   0  0  0  0  0  0  0  0  0  0  0  0
   -4.5653   -3.6050    2.7164 H   0  0  0  0  0  0  0  0  0  0  0  0
    5.4993   -1.8531    0.2068 H   0  0  0  0  0  0  0  0  0  0  0  0
   10.6608   -0.8904    2.2082 H   0  0  0  0  0  0  0  0  0  0  0  0
   10.3404    0.8728    0.4558 H   0  0  0  0  0  0  0  0  0  0  0  0
   11.9275    0.0373    0.2966 H   0  0  0  0  0  0  0  0  0  0  0  0
   10.5795   -0.3672   -0.8389 H   0  0  0  0  0  0  0  0  0  0  0  0
   10.6491   -3.3138    1.5535 H   0  0  0  0  0  0  0  0  0  0  0  0
   12.1183   -2.4427    0.9854 H   0  0  0  0  0  0  0  0  0  0  0  0
   10.8044   -2.8373   -0.1865 H   0  0  0  0  0  0  0  0  0  0  0  0
   -7.4418   -4.8347    0.9885 H   0  0  0  0  0  0  0  0  0  0  0  0
   -4.7724   -7.5705   -0.8330 H   0  0  0  0  0  0  0  0  0  0  0  0
  1 44  1  0
  1 45  1  0
  2 43  1  0
  2 50  1  0
 16  3  1  0
  4 22  2  0
  5 29  1  0
  5 41  1  0
  6 29  2  0
  7 32  2  0
 14  8  1  0
  8 22  1  0
 17  9  1  0
  9 29  1  0
 20 10  1  0
 10 32  1  0
 11 32  1  0
 11 39  1  0
 11 40  1  0
 12 42  1  0
 12 44  2  0
 13 49  1  0
 13 50  2  0
 14 15  1  0
 14 18  1  0
 15 16  1  0
 16 17  1  0
 17 19  1  0
 18 23  1  0
 19 24  1  0
 20 21  1  0
 20 22  1  0
 21 25  1  0
 21 26  1  0
 23 27  2  0
 23 28  1  0
 24 30  2  0
 24 31  1  0
 27 33  1  0
 28 34  2  0
 30 35  1  0
 31 36  2  0
 33 37  2  0
 34 37  1  0
 35 38  2  0
 36 38  1  0
 39 42  1  0
 41 43  1  0
 42 45  2  0
 43 49  2  0
 44 46  1  0
 46 47  1  0
 46 48  1  0
  3 51  1  0
  8 52  1  0
  9 53  1  0
 10 54  1  0
 14 55  1  1
 15 56  1  0
 15 57  1  0
 16 58  1  6
 17 59  1  6
 18 60  1  0
 18 61  1  0
 19 62  1  0
 19 63  1  0
 20 64  1  6
 21 65  1  0
 25 66  1  0
 25 67  1  0
 25 68  1  0
 26 69  1  0
 26 70  1  0
 26 71  1  0
 27 72  1  0
 28 73  1  0
 30 74  1  0
 31 75  1  0
 33 76  1  0
 34 77  1  0
 35 78  1  0
 36 79  1  0
 37 80  1  0
 38 81  1  0
 39 82  1  0
 39 83  1  0
 40 84  1  0
 40 85  1  0
 40 86  1  0
 41 87  1  0
 41 88  1  0
 45 89  1  0
 46 90  1  0
 47 91  1  0
 47 92  1  0
 47 93  1  0
 48 94  1  0
 48 95  1  0
 48 96  1  0
 49 97  1  0
 50 98  1  0
M  END
>  <PUBCHEM_COMPOUND_CID>  (1) 
392622

>  <PUBCHEM_COMPOUND_CANONICALIZED>  (1) 
1

>  <PUBCHEM_CACTVS_COMPLEXITY>  (1) 
1040

>  <PUBCHEM_CACTVS_HBOND_ACCEPTOR>  (1) 
9

>  <PUBCHEM_CACTVS_HBOND_DONOR>  (1) 
4

>  <PUBCHEM_CACTVS_ROTATABLE_BOND>  (1) 
18

>  <PUBCHEM_CACTVS_SUBSKEYS>  (1) 
AAADcfB/uABgAAAAAAAAAAAAAAAAAWLAAAAwYAAAAAAAAAAB9AAAHgQQCAAADTzl3ga/iZPIFgisAzV3XACC8KBxCjhI2J24bImKdDLgsTmcYAgulgL4qAeQwPAOAAAAAAAAAAAAAAAAAAAAAAAAAAAAAA==

>  <PUBCHEM_IUPAC_OPENEYE_NAME>  (1) 
thiazol-5-ylmethyl N-[(1S,2S,4S)-1-benzyl-2-hydroxy-4-[[(2S)-2-[[(2-isopropylthiazol-4-yl)methyl-methyl-carbamoyl]amino]-3-methyl-butanoyl]amino]-5-phenyl-pentyl]carbamate

>  <PUBCHEM_IUPAC_CAS_NAME>  (1) 
N-[(2S,3S,5S)-3-hydroxy-5-[[(2S)-3-methyl-2-[[[methyl-[(2-propan-2-yl-4-thiazolyl)methyl]amino]-oxomethyl]amino]-1-oxobutyl]amino]-1,6-diphenylhexan-2-yl]carbamic acid 5-thiazolylmethyl ester

>  <PUBCHEM_IUPAC_NAME_MARKUP>  (1) 
1,3-thiazol-5-ylmethyl <I>N</I>-[(2<I>S</I>,3<I>S</I>,5<I>S</I>)-3-hydroxy-5-[[(2<I>S</I>)-3-methyl-2-[[methyl-[(2-propan-2-yl-1,3-thiazol-4-yl)methyl]carbamoyl]amino]butanoyl]amino]-1,6-diphenylhexan-2-yl]carbamate

>  <PUBCHEM_IUPAC_NAME>  (1) 
1,3-thiazol-5-ylmethyl N-[(2S,3S,5S)-3-hydroxy-5-[[(2S)-3-methyl-2-[[methyl-[(2-propan-2-yl-1,3-thiazol-4-yl)methyl]carbamoyl]amino]butanoyl]amino]-1,6-diphenylhexan-2-yl]carbamate

>  <PUBCHEM_IUPAC_SYSTEMATIC_NAME>  (1) 
1,3-thiazol-5-ylmethyl N-[(2S,3S,5S)-5-[[(2S)-3-methyl-2-[[methyl-[(2-propan-2-yl-1,3-thiazol-4-yl)methyl]carbamoyl]amino]butanoyl]amino]-3-oxidanyl-1,6-diphenyl-hexan-2-yl]carbamate

>  <PUBCHEM_IUPAC_TRADITIONAL_NAME>  (1) 
N-[(1S,2S,4S)-1-benzyl-2-hydroxy-4-[[(2S)-2-[[(2-isopropylthiazol-4-yl)methyl-methyl-carbamoyl]amino]-3-methyl-butanoyl]amino]-5-phenyl-pentyl]carbamic acid thiazol-5-ylmethyl ester

>  <PUBCHEM_IUPAC_INCHI>  (1) 
InChI=1S/C37H48N6O5S2/c1-24(2)33(42-36(46)43(5)20-29-22-49-35(40-29)25(3)4)34(45)39-28(16-26-12-8-6-9-13-26)18-32(44)31(17-27-14-10-7-11-15-27)41-37(47)48-21-30-19-38-23-50-30/h6-15,19,22-25,28,31-33,44H,16-18,20-21H2,1-5H3,(H,39,45)(H,41,47)(H,42,46)/t28-,31-,32-,33-/m0/s1

>  <PUBCHEM_IUPAC_INCHIKEY>  (1) 
NCDNCNXCDXHOMX-XGKFQTDJSA-N

>  <PUBCHEM_XLOGP3_AA>  (1) 
6

>  <PUBCHEM_EXACT_MASS>  (1) 
720.31276100

>  <PUBCHEM_MOLECULAR_FORMULA>  (1) 
C37H48N6O5S2

>  <PUBCHEM_MOLECULAR_WEIGHT>  (1) 
720.9

>  <PUBCHEM_SMILES>  (1) 
CC(C)C1=NC(=CS1)CN(C)C(=O)N[C@@H](C(C)C)C(=O)N[C@@H](CC2=CC=CC=C2)C[C@@H]([C@H](CC3=CC=CC=C3)NC(=O)OCC4=CN=CS4)O

>  <PUBCHEM_CONNECTIVITY_SMILES>  (1) 
CC(C)C1=NC(=CS1)CN(C)C(=O)NC(C(C)C)C(=O)NC(CC2=CC=CC=C2)CC(C(CC3=CC=CC=C3)NC(=O)OCC4=CN=CS4)O

>  <PUBCHEM_CACTVS_TPSA>  (1) 
202

>  <PUBCHEM_MONOISOTOPIC_WEIGHT>  (1) 
720.31276100

>  <PUBCHEM_TOTAL_CHARGE>  (1) 
0

>  <PUBCHEM_HEAVY_ATOM_COUNT>  (1) 
50

>  <PUBCHEM_ATOM_DEF_STEREO_COUNT>  (1) 
4

>  <PUBCHEM_ATOM_UDEF_STEREO_COUNT>  (1) 
0

>  <PUBCHEM_BOND_DEF_STEREO_COUNT>  (1) 
0

>  <PUBCHEM_BOND_UDEF_STEREO_COUNT>  (1) 
0

>  <PUBCHEM_ISOTOPIC_ATOM_COUNT>  (1) 
0

>  <PUBCHEM_COMPONENT_COUNT>  (1) 
1

>  <PUBCHEM_CACTVS_TAUTO_COUNT>  (1) 
-1

>  <PUBCHEM_COORDINATE_TYPE>  (1) 
1
5
255

>  <PUBCHEM_BONDANNOTATIONS>  (1) 
1  44  8
1  45  8
20  10  6
12  42  8
12  44  8
13  49  8
13  50  8
2  43  8
2  50  8
23  27  8
23  28  8
24  30  8
24  31  8
27  33  8
28  34  8
16  3  5
30  35  8
31  36  8
33  37  8
34  37  8
35  38  8
36  38  8
42  45  8
43  49  8
14  8  6
17  9  5

$$$$
